# generated using pymatgen
data_Nb2O5
_symmetry_space_group_name_H-M   'P 1'
_cell_length_a   3.86188530
_cell_length_b   14.71473850
_cell_length_c   15.43637828
_cell_angle_alpha   104.89592235
_cell_angle_beta   97.18545183
_cell_angle_gamma   97.52660621
_symmetry_Int_Tables_number   1
_chemical_formula_structural   Nb2O5
_chemical_formula_sum   'Nb16 O40'
_cell_volume   828.796879896
_cell_formula_units_Z   8
loop_
 _symmetry_equiv_pos_site_id
 _symmetry_equiv_pos_as_xyz
  1  'x, y, z'
loop_
 _atom_site_type_symbol
 _atom_site_label
 _atom_site_symmetry_multiplicity
 _atom_site_fract_x
 _atom_site_fract_y
 _atom_site_fract_z
 _atom_site_occupancy
  Nb  Nb1  1  0.169637  0.247074  0.096428  1
  Nb  Nb2  1  0.305803  0.511873  0.097557  1
  Nb  Nb3  1  0.961103  0.023003  0.898803  1
  Nb  Nb4  1  0.329079  0.328964  0.371122  1
  Nb  Nb5  1  0.636261  0.672090  0.628918  1
  Nb  Nb6  1  0.828076  0.753513  0.903124  1
  Nb  Nb7  1  0.532266  0.408998  0.631902  1
  Nb  Nb8  1  0.782820  0.939912  0.628586  1
  Nb  Nb9  1  0.693758  0.488348  0.901824  1
  Nb  Nb10  1  0.038548  0.978004  0.100936  1
  Nb  Nb11  1  0.219435  0.060975  0.370982  1
  Nb  Nb12  1  0.557784  0.216612  0.899574  1
  Nb  Nb13  1  0.615440  0.862139  0.365606  1
  Nb  Nb14  1  0.387379  0.138624  0.633853  1
  Nb  Nb15  1  0.465408  0.592161  0.368071  1
  Nb  Nb16  1  0.440698  0.783598  0.099606  1
  O  O17  1  0.642207  0.232525  0.055067  1
  O  O18  1  0.628144  0.344071  0.910055  1
  O  O19  1  0.297975  0.092069  0.501416  1
  O  O20  1  0.128816  0.897444  0.358028  1
  O  O21  1  0.486574  0.060510  0.912768  1
  O  O22  1  0.387749  0.548909  0.220383  1
  O  O23  1  0.527073  0.834281  0.222325  1
  O  O24  1  0.055560  0.186216  0.925807  1
  O  O25  1  0.120423  0.017962  0.223546  1
  O  O26  1  0.755004  0.729365  0.782596  1
  O  O27  1  0.241734  0.271783  0.217240  1
  O  O28  1  0.772539  0.626362  0.917962  1
  O  O29  1  0.943183  0.814412  0.073704  1
  O  O30  1  0.453545  0.265272  0.645422  1
  O  O31  1  0.074552  0.090667  0.061310  1
  O  O32  1  0.587026  0.541516  0.637315  1
  O  O33  1  0.015181  0.395702  0.641484  1
  O  O34  1  0.308533  0.979167  0.638936  1
  O  O35  1  0.471861  0.165250  0.776841  1
  O  O36  1  0.611265  0.451260  0.778975  1
  O  O37  1  0.278913  0.183151  0.363350  1
  O  O38  1  0.413576  0.459575  0.362739  1
  O  O39  1  0.831814  0.314441  0.351078  1
  O  O40  1  0.371281  0.655958  0.088298  1
  O  O41  1  0.983113  0.604917  0.357540  1
  O  O42  1  0.880583  0.984157  0.776130  1
  O  O43  1  0.211210  0.486018  0.936928  1
  O  O44  1  0.724738  0.818122  0.637085  1
  O  O45  1  0.424413  0.358476  0.500163  1
  O  O46  1  0.787951  0.513865  0.061990  1
  O  O47  1  0.569844  0.642933  0.499744  1
  O  O48  1  0.703142  0.908146  0.497997  1
  O  O49  1  0.692789  0.021358  0.360189  1
  O  O50  1  0.872718  0.103146  0.640863  1
  O  O51  1  0.512989  0.940479  0.087223  1
  O  O52  1  0.356121  0.768374  0.944401  1
  O  O53  1  0.226495  0.374028  0.081118  1
  O  O54  1  0.547645  0.735439  0.354362  1
  O  O55  1  0.165310  0.685797  0.648687  1
  O  O56  1  0.924237  0.910325  0.938448  1
